/*--------------------------------*- C++ -*----------------------------------*\
  =========                 |
  \\      /  F ield         | OpenFOAM: The Open Source CFD Toolbox
   \\    /   O peration     | Website:  https://openfoam.org
    \\  /    A nd           | Version:  6
     \\/     M anipulation  |
\*---------------------------------------------------------------------------*/
FoamFile
{
    version     2.0;
    format      ascii;
    class       polyBoundaryMesh;
    location    "constant/polyMesh";
    object      boundary;
}
// * * * * * * * * * * * * * * * * * * * * * * * * * * * * * * * * * * * * * //

12
(
    floor
    {
        type            wall;
        inGroups        1(wall);
        nFaces          36;
        startFace       853;
    }
    ceiling
    {
        type            wall;
        inGroups        1(wall);
        nFaces          47;
        startFace       889;
    }
    sWall
    {
        type            wall;
        inGroups        1(wall);
        nFaces          1;
        startFace       936;
    }
    nWall
    {
        type            wall;
        inGroups        1(wall);
        nFaces          5;
        startFace       937;
    }
    sideWalls
    {
        type            empty;
        inGroups        1(empty);
        nFaces          920;
        startFace       942;
    }
    glass1
    {
        type            wall;
        inGroups        1(wall);
        nFaces          10;
        startFace       1862;
    }
    glass2
    {
        type            wall;
        inGroups        1(wall);
        nFaces          2;
        startFace       1872;
    }
    sun
    {
        type            wall;
        inGroups        1(wall);
        nFaces          17;
        startFace       1874;
    }
    Table_master
    {
        type            wall;
        inGroups        
2
(
wall
Table
)
;
        nFaces          8;
        startFace       1891;
    }
    Table_slave
    {
        type            wall;
        inGroups        
2
(
wall
Table
)
;
        nFaces          8;
        startFace       1899;
    }
    inlet
    {
        type            patch;
        nFaces          0;
        startFace       1907;
    }
    outlet
    {
        type            patch;
        nFaces          0;
        startFace       1907;
    }
)

// ************************************************************************* //
