/*--------------------------------*- C++ -*----------------------------------*\
  =========                 |
  \\      /  F ield         | OpenFOAM: The Open Source CFD Toolbox
   \\    /   O peration     | Website:  https://openfoam.org
    \\  /    A nd           | Version:  6
     \\/     M anipulation  |
\*---------------------------------------------------------------------------*/
FoamFile
{
    version     2.0;
    format      ascii;
    class       polyBoundaryMesh;
    location    "constant/polyMesh";
    object      boundary;
}
// * * * * * * * * * * * * * * * * * * * * * * * * * * * * * * * * * * * * * //

14
(
    floor
    {
        type            wall;
        inGroups        1(wall);
        nFaces          29;
        startFace       1216;
    }
    ceiling
    {
        type            wall;
        inGroups        1(wall);
        nFaces          54;
        startFace       1245;
    }
    sWall
    {
        type            wall;
        inGroups        1(wall);
        nFaces          1;
        startFace       1299;
    }
    nWall
    {
        type            wall;
        inGroups        1(wall);
        nFaces          6;
        startFace       1300;
    }
    sideWalls
    {
        type            empty;
        inGroups        1(empty);
        nFaces          1278;
        startFace       1306;
    }
    glass1
    {
        type            wall;
        inGroups        1(wall);
        nFaces          9;
        startFace       2584;
    }
    glass2
    {
        type            wall;
        inGroups        1(wall);
        nFaces          2;
        startFace       2593;
    }
    sun
    {
        type            wall;
        inGroups        1(wall);
        nFaces          14;
        startFace       2595;
    }
    heatsource1
    {
        type            wall;
        inGroups        1(wall);
        nFaces          3;
        startFace       2609;
    }
    heatsource2
    {
        type            wall;
        inGroups        1(wall);
        nFaces          4;
        startFace       2612;
    }
    Table_master
    {
        type            wall;
        inGroups        
2
(
wall
Table
)
;
        nFaces          9;
        startFace       2616;
    }
    Table_slave
    {
        type            wall;
        inGroups        
2
(
wall
Table
)
;
        nFaces          9;
        startFace       2625;
    }
    inlet
    {
        type            patch;
        nFaces          2;
        startFace       2634;
    }
    outlet
    {
        type            patch;
        nFaces          2;
        startFace       2636;
    }
)

// ************************************************************************* //
