/*--------------------------------*- C++ -*----------------------------------*\
  =========                 |
  \\      /  F ield         | OpenFOAM: The Open Source CFD Toolbox
   \\    /   O peration     | Website:  https://openfoam.org
    \\  /    A nd           | Version:  6
     \\/     M anipulation  |
\*---------------------------------------------------------------------------*/
FoamFile
{
    version     2.0;
    format      ascii;
    class       polyBoundaryMesh;
    location    "constant/polyMesh";
    object      boundary;
}
// * * * * * * * * * * * * * * * * * * * * * * * * * * * * * * * * * * * * * //

11
(
    floor
    {
        type            wall;
        inGroups        1(wall);
        nFaces          56;
        startFace       1434;
    }
    ceiling
    {
        type            wall;
        inGroups        1(wall);
        nFaces          43;
        startFace       1490;
    }
    sWall
    {
        type            wall;
        inGroups        1(wall);
        nFaces          12;
        startFace       1533;
    }
    nWall
    {
        type            wall;
        inGroups        1(wall);
        nFaces          14;
        startFace       1545;
    }
    sideWalls
    {
        type            empty;
        inGroups        1(empty);
        nFaces          1512;
        startFace       1559;
    }
    glass1
    {
        type            wall;
        inGroups        1(wall);
        nFaces          6;
        startFace       3071;
    }
    glass2
    {
        type            wall;
        inGroups        1(wall);
        nFaces          6;
        startFace       3077;
    }
    Table_master
    {
        type            wall;
        inGroups        
2
(
wall
Table
)
;
        nFaces          8;
        startFace       3083;
    }
    Table_slave
    {
        type            wall;
        inGroups        
2
(
wall
Table
)
;
        nFaces          8;
        startFace       3091;
    }
    inlet
    {
        type            patch;
        nFaces          1;
        startFace       3099;
    }
    outlet
    {
        type            patch;
        nFaces          2;
        startFace       3100;
    }
)

// ************************************************************************* //
