/*--------------------------------*- C++ -*----------------------------------*\
  =========                 |
  \\      /  F ield         | OpenFOAM: The Open Source CFD Toolbox
   \\    /   O peration     | Website:  https://openfoam.org
    \\  /    A nd           | Version:  6
     \\/     M anipulation  |
\*---------------------------------------------------------------------------*/
FoamFile
{
    version     2.0;
    format      ascii;
    class       polyBoundaryMesh;
    location    "constant/polyMesh";
    object      boundary;
}
// * * * * * * * * * * * * * * * * * * * * * * * * * * * * * * * * * * * * * //

11
(
    floor
    {
        type            wall;
        inGroups        1(wall);
        nFaces          40;
        startFace       1522;
    }
    ceiling
    {
        type            wall;
        inGroups        1(wall);
        nFaces          43;
        startFace       1562;
    }
    sWall
    {
        type            wall;
        inGroups        1(wall);
        nFaces          12;
        startFace       1605;
    }
    nWall
    {
        type            wall;
        inGroups        1(wall);
        nFaces          14;
        startFace       1617;
    }
    sideWalls
    {
        type            empty;
        inGroups        1(empty);
        nFaces          1592;
        startFace       1631;
    }
    glass1
    {
        type            wall;
        inGroups        1(wall);
        nFaces          6;
        startFace       3223;
    }
    glass2
    {
        type            wall;
        inGroups        1(wall);
        nFaces          6;
        startFace       3229;
    }
    Table_master
    {
        type            wall;
        inGroups        
2
(
wall
Table
)
;
        nFaces          8;
        startFace       3235;
    }
    Table_slave
    {
        type            wall;
        inGroups        
2
(
wall
Table
)
;
        nFaces          8;
        startFace       3243;
    }
    inlet
    {
        type            patch;
        nFaces          1;
        startFace       3251;
    }
    outlet
    {
        type            patch;
        nFaces          2;
        startFace       3252;
    }
)

// ************************************************************************* //
