/*--------------------------------*- C++ -*----------------------------------*\
  =========                 |
  \\      /  F ield         | OpenFOAM: The Open Source CFD Toolbox
   \\    /   O peration     | Website:  https://openfoam.org
    \\  /    A nd           | Version:  6
     \\/     M anipulation  |
\*---------------------------------------------------------------------------*/
FoamFile
{
    version     2.0;
    format      ascii;
    class       polyBoundaryMesh;
    location    "constant/polyMesh";
    object      boundary;
}
// * * * * * * * * * * * * * * * * * * * * * * * * * * * * * * * * * * * * * //

10
(
    floor
    {
        type            wall;
        inGroups        1(wall);
        nFaces          42;
        startFace       1480;
    }
    ceiling
    {
        type            wall;
        inGroups        1(wall);
        nFaces          43;
        startFace       1522;
    }
    sWall
    {
        type            wall;
        inGroups        1(wall);
        nFaces          9;
        startFace       1565;
    }
    nWall
    {
        type            wall;
        inGroups        1(wall);
        nFaces          18;
        startFace       1574;
    }
    sideWalls
    {
        type            empty;
        inGroups        1(empty);
        nFaces          1550;
        startFace       1592;
    }
    glass1
    {
        type            wall;
        inGroups        1(wall);
        nFaces          9;
        startFace       3142;
    }
    glass2
    {
        type            wall;
        inGroups        1(wall);
        nFaces          2;
        startFace       3151;
    }
    sun
    {
        type            wall;
        inGroups        1(wall);
        nFaces          14;
        startFace       3153;
    }
    inlet
    {
        type            patch;
        nFaces          1;
        startFace       3167;
    }
    outlet
    {
        type            patch;
        nFaces          2;
        startFace       3168;
    }
)

// ************************************************************************* //
