/*--------------------------------*- C++ -*----------------------------------*\
  =========                 |
  \\      /  F ield         | OpenFOAM: The Open Source CFD Toolbox
   \\    /   O peration     | Website:  https://openfoam.org
    \\  /    A nd           | Version:  6
     \\/     M anipulation  |
\*---------------------------------------------------------------------------*/
FoamFile
{
    version     2.0;
    format      ascii;
    class       polyBoundaryMesh;
    location    "constant/polyMesh";
    object      boundary;
}
// * * * * * * * * * * * * * * * * * * * * * * * * * * * * * * * * * * * * * //

9
(
    floor
    {
        type            wall;
        inGroups        1(wall);
        nFaces          65;
        startFace       1444;
    }
    ceiling
    {
        type            wall;
        inGroups        1(wall);
        nFaces          43;
        startFace       1509;
    }
    sWall
    {
        type            wall;
        inGroups        1(wall);
        nFaces          16;
        startFace       1552;
    }
    nWall
    {
        type            wall;
        inGroups        1(wall);
        nFaces          6;
        startFace       1568;
    }
    sideWalls
    {
        type            empty;
        inGroups        1(empty);
        nFaces          1514;
        startFace       1574;
    }
    glass1
    {
        type            wall;
        inGroups        1(wall);
        nFaces          2;
        startFace       3088;
    }
    glass2
    {
        type            wall;
        inGroups        1(wall);
        nFaces          5;
        startFace       3090;
    }
    inlet
    {
        type            patch;
        nFaces          1;
        startFace       3095;
    }
    outlet
    {
        type            patch;
        nFaces          2;
        startFace       3096;
    }
)

// ************************************************************************* //
