/*--------------------------------*- C++ -*----------------------------------*\
  =========                 |
  \\      /  F ield         | OpenFOAM: The Open Source CFD Toolbox
   \\    /   O peration     | Website:  https://openfoam.org
    \\  /    A nd           | Version:  6
     \\/     M anipulation  |
\*---------------------------------------------------------------------------*/
FoamFile
{
    version     2.0;
    format      ascii;
    class       polyBoundaryMesh;
    location    "constant/polyMesh";
    object      boundary;
}
// * * * * * * * * * * * * * * * * * * * * * * * * * * * * * * * * * * * * * //

12
(
    floor
    {
        type            wall;
        inGroups        1(wall);
        nFaces          36;
        startFace       1256;
    }
    ceiling
    {
        type            wall;
        inGroups        1(wall);
        nFaces          58;
        startFace       1292;
    }
    sWall
    {
        type            wall;
        inGroups        1(wall);
        nFaces          4;
        startFace       1350;
    }
    nWall
    {
        type            wall;
        inGroups        1(wall);
        nFaces          6;
        startFace       1354;
    }
    sideWalls
    {
        type            empty;
        inGroups        1(empty);
        nFaces          1324;
        startFace       1360;
    }
    glass1
    {
        type            wall;
        inGroups        1(wall);
        nFaces          10;
        startFace       2684;
    }
    glass2
    {
        type            wall;
        inGroups        1(wall);
        nFaces          2;
        startFace       2694;
    }
    sun
    {
        type            wall;
        inGroups        1(wall);
        nFaces          14;
        startFace       2696;
    }
    Table_master
    {
        type            wall;
        inGroups        
2
(
wall
Table
)
;
        nFaces          9;
        startFace       2710;
    }
    Table_slave
    {
        type            wall;
        inGroups        
2
(
wall
Table
)
;
        nFaces          9;
        startFace       2719;
    }
    inlet
    {
        type            patch;
        nFaces          2;
        startFace       2728;
    }
    outlet
    {
        type            patch;
        nFaces          4;
        startFace       2730;
    }
)

// ************************************************************************* //
